*SPEF "IEEE 1481-1998"
*DESIGN "FFT"
*DATE "Thu Oct 12 10:28:13 am 2023"
*VENDOR "Cadence Design Systems"
*PROGRAM "Genus(TM) Synthesis Solution"
*VERSION "21.16-s062_1"
*DESIGN_FLOW "PIN_CAP NONE" "NAME_SCOPE LOCAL"
*DIVIDER /
*DELIMITER :
*BUS_DELIMITER []
*T_UNIT 1 NS
*C_UNIT 1 PF
*R_UNIT 1 OHM
*L_UNIT 1 HENRY
// Interconnect mode: global

*NAME_MAP

*1 x_31[16]
*2 x_31[15]
*3 x_31[14]
*4 x_31[13]
*5 x_31[12]
*6 x_31[11]
*7 x_31[10]
*8 x_31[9]
*9 x_31[8]
*10 x_31[7]
*11 x_31[6]
*12 x_31[5]
*13 x_31[4]
*14 x_31[3]
*15 x_31[2]
*16 x_31[1]
*17 x_31[0]
*18 x_30[16]
*19 x_30[15]
*20 x_30[14]
*21 x_30[13]
*22 x_30[12]
*23 x_30[11]
*24 x_30[10]
*25 x_30[9]
*26 x_30[8]
*27 x_30[7]
*28 x_30[6]
*29 x_30[5]
*30 x_30[4]
*31 x_30[3]
*32 x_30[2]
*33 x_30[1]
*34 x_30[0]
*35 x_29[16]
*36 x_29[15]
*37 x_29[14]
*38 x_29[13]
*39 x_29[12]
*40 x_29[11]
*41 x_29[10]
*42 x_29[9]
*43 x_29[8]
*44 x_29[7]
*45 x_29[6]
*46 x_29[5]
*47 x_29[4]
*48 x_29[3]
*49 x_29[2]
*50 x_29[1]
*51 x_29[0]
*52 x_28[16]
*53 x_28[15]
*54 x_28[14]
*55 x_28[13]
*56 x_28[12]
*57 x_28[11]
*58 x_28[10]
*59 x_28[9]
*60 x_28[8]
*61 x_28[7]
*62 x_28[6]
*63 x_28[5]
*64 x_28[4]
*65 x_28[3]
*66 x_28[2]
*67 x_28[1]
*68 x_28[0]
*69 x_27[16]
*70 x_27[15]
*71 x_27[14]
*72 x_27[13]
*73 x_27[12]
*74 x_27[11]
*75 x_27[10]
*76 x_27[9]
*77 x_27[8]
*78 x_27[7]
*79 x_27[6]
*80 x_27[5]
*81 x_27[4]
*82 x_27[3]
*83 x_27[2]
*84 x_27[1]
*85 x_27[0]
*86 x_26[16]
*87 x_26[15]
*88 x_26[14]
*89 x_26[13]
*90 x_26[12]
*91 x_26[11]
*92 x_26[10]
*93 x_26[9]
*94 x_26[8]
*95 x_26[7]
*96 x_26[6]
*97 x_26[5]
*98 x_26[4]
*99 x_26[3]
*100 x_26[2]
*101 x_26[1]
*102 x_26[0]
*103 x_25[16]
*104 x_25[15]
*105 x_25[14]
*106 x_25[13]
*107 x_25[12]
*108 x_25[11]
*109 x_25[10]
*110 x_25[9]
*111 x_25[8]
*112 x_25[7]
*113 x_25[6]
*114 x_25[5]
*115 x_25[4]
*116 x_25[3]
*117 x_25[2]
*118 x_25[1]
*119 x_25[0]
*120 x_24[16]
*121 x_24[15]
*122 x_24[14]
*123 x_24[13]
*124 x_24[12]
*125 x_24[11]
*126 x_24[10]
*127 x_24[9]
*128 x_24[8]
*129 x_24[7]
*130 x_24[6]
*131 x_24[5]
*132 x_24[4]
*133 x_24[3]
*134 x_24[2]
*135 x_24[1]
*136 x_24[0]
*137 x_23[16]
*138 x_23[15]
*139 x_23[14]
*140 x_23[13]
*141 x_23[12]
*142 x_23[11]
*143 x_23[10]
*144 x_23[9]
*145 x_23[8]
*146 x_23[7]
*147 x_23[6]
*148 x_23[5]
*149 x_23[4]
*150 x_23[3]
*151 x_23[2]
*152 x_23[1]
*153 x_23[0]
*154 x_22[16]
*155 x_22[15]
*156 x_22[14]
*157 x_22[13]
*158 x_22[12]
*159 x_22[11]
*160 x_22[10]
*161 x_22[9]
*162 x_22[8]
*163 x_22[7]
*164 x_22[6]
*165 x_22[5]
*166 x_22[4]
*167 x_22[3]
*168 x_22[2]
*169 x_22[1]
*170 x_22[0]
*171 x_21[16]
*172 x_21[15]
*173 x_21[14]
*174 x_21[13]
*175 x_21[12]
*176 x_21[11]
*177 x_21[10]
*178 x_21[9]
*179 x_21[8]
*180 x_21[7]
*181 x_21[6]
*182 x_21[5]
*183 x_21[4]
*184 x_21[3]
*185 x_21[2]
*186 x_21[1]
*187 x_21[0]
*188 x_20[16]
*189 x_20[15]
*190 x_20[14]
*191 x_20[13]
*192 x_20[12]
*193 x_20[11]
*194 x_20[10]
*195 x_20[9]
*196 x_20[8]
*197 x_20[7]
*198 x_20[6]
*199 x_20[5]
*200 x_20[4]
*201 x_20[3]
*202 x_20[2]
*203 x_20[1]
*204 x_20[0]
*205 x_19[16]
*206 x_19[15]
*207 x_19[14]
*208 x_19[13]
*209 x_19[12]
*210 x_19[11]
*211 x_19[10]
*212 x_19[9]
*213 x_19[8]
*214 x_19[7]
*215 x_19[6]
*216 x_19[5]
*217 x_19[4]
*218 x_19[3]
*219 x_19[2]
*220 x_19[1]
*221 x_19[0]
*222 x_18[16]
*223 x_18[15]
*224 x_18[14]
*225 x_18[13]
*226 x_18[12]
*227 x_18[11]
*228 x_18[10]
*229 x_18[9]
*230 x_18[8]
*231 x_18[7]
*232 x_18[6]
*233 x_18[5]
*234 x_18[4]
*235 x_18[3]
*236 x_18[2]
*237 x_18[1]
*238 x_18[0]
*239 x_17[16]
*240 x_17[15]
*241 x_17[14]
*242 x_17[13]
*243 x_17[12]
*244 x_17[11]
*245 x_17[10]
*246 x_17[9]
*247 x_17[8]
*248 x_17[7]
*249 x_17[6]
*250 x_17[5]
*251 x_17[4]
*252 x_17[3]
*253 x_17[2]
*254 x_17[1]
*255 x_17[0]
*256 x_16[16]
*257 x_16[15]
*258 x_16[14]
*259 x_16[13]
*260 x_16[12]
*261 x_16[11]
*262 x_16[10]
*263 x_16[9]
*264 x_16[8]
*265 x_16[7]
*266 x_16[6]
*267 x_16[5]
*268 x_16[4]
*269 x_16[3]
*270 x_16[2]
*271 x_16[1]
*272 x_16[0]
*273 x_15[16]
*274 x_15[15]
*275 x_15[14]
*276 x_15[13]
*277 x_15[12]
*278 x_15[11]
*279 x_15[10]
*280 x_15[9]
*281 x_15[8]
*282 x_15[7]
*283 x_15[6]
*284 x_15[5]
*285 x_15[4]
*286 x_15[3]
*287 x_15[2]
*288 x_15[1]
*289 x_15[0]
*290 x_14[16]
*291 x_14[15]
*292 x_14[14]
*293 x_14[13]
*294 x_14[12]
*295 x_14[11]
*296 x_14[10]
*297 x_14[9]
*298 x_14[8]
*299 x_14[7]
*300 x_14[6]
*301 x_14[5]
*302 x_14[4]
*303 x_14[3]
*304 x_14[2]
*305 x_14[1]
*306 x_14[0]
*307 x_13[16]
*308 x_13[15]
*309 x_13[14]
*310 x_13[13]
*311 x_13[12]
*312 x_13[11]
*313 x_13[10]
*314 x_13[9]
*315 x_13[8]
*316 x_13[7]
*317 x_13[6]
*318 x_13[5]
*319 x_13[4]
*320 x_13[3]
*321 x_13[2]
*322 x_13[1]
*323 x_13[0]
*324 x_12[16]
*325 x_12[15]
*326 x_12[14]
*327 x_12[13]
*328 x_12[12]
*329 x_12[11]
*330 x_12[10]
*331 x_12[9]
*332 x_12[8]
*333 x_12[7]
*334 x_12[6]
*335 x_12[5]
*336 x_12[4]
*337 x_12[3]
*338 x_12[2]
*339 x_12[1]
*340 x_12[0]
*341 x_11[16]
*342 x_11[15]
*343 x_11[14]
*344 x_11[13]
*345 x_11[12]
*346 x_11[11]
*347 x_11[10]
*348 x_11[9]
*349 x_11[8]
*350 x_11[7]
*351 x_11[6]
*352 x_11[5]
*353 x_11[4]
*354 x_11[3]
*355 x_11[2]
*356 x_11[1]
*357 x_11[0]
*358 x_10[16]
*359 x_10[15]
*360 x_10[14]
*361 x_10[13]
*362 x_10[12]
*363 x_10[11]
*364 x_10[10]
*365 x_10[9]
*366 x_10[8]
*367 x_10[7]
*368 x_10[6]
*369 x_10[5]
*370 x_10[4]
*371 x_10[3]
*372 x_10[2]
*373 x_10[1]
*374 x_10[0]
*375 x_9[16]
*376 x_9[15]
*377 x_9[14]
*378 x_9[13]
*379 x_9[12]
*380 x_9[11]
*381 x_9[10]
*382 x_9[9]
*383 x_9[8]
*384 x_9[7]
*385 x_9[6]
*386 x_9[5]
*387 x_9[4]
*388 x_9[3]
*389 x_9[2]
*390 x_9[1]
*391 x_9[0]
*392 x_8[16]
*393 x_8[15]
*394 x_8[14]
*395 x_8[13]
*396 x_8[12]
*397 x_8[11]
*398 x_8[10]
*399 x_8[9]
*400 x_8[8]
*401 x_8[7]
*402 x_8[6]
*403 x_8[5]
*404 x_8[4]
*405 x_8[3]
*406 x_8[2]
*407 x_8[1]
*408 x_8[0]
*409 x_7[16]
*410 x_7[15]
*411 x_7[14]
*412 x_7[13]
*413 x_7[12]
*414 x_7[11]
*415 x_7[10]
*416 x_7[9]
*417 x_7[8]
*418 x_7[7]
*419 x_7[6]
*420 x_7[5]
*421 x_7[4]
*422 x_7[3]
*423 x_7[2]
*424 x_7[1]
*425 x_7[0]
*426 x_6[16]
*427 x_6[15]
*428 x_6[14]
*429 x_6[13]
*430 x_6[12]
*431 x_6[11]
*432 x_6[10]
*433 x_6[9]
*434 x_6[8]
*435 x_6[7]
*436 x_6[6]
*437 x_6[5]
*438 x_6[4]
*439 x_6[3]
*440 x_6[2]
*441 x_6[1]
*442 x_6[0]
*443 x_5[16]
*444 x_5[15]
*445 x_5[14]
*446 x_5[13]
*447 x_5[12]
*448 x_5[11]
*449 x_5[10]
*450 x_5[9]
*451 x_5[8]
*452 x_5[7]
*453 x_5[6]
*454 x_5[5]
*455 x_5[4]
*456 x_5[3]
*457 x_5[2]
*458 x_5[1]
*459 x_5[0]
*460 x_4[16]
*461 x_4[15]
*462 x_4[14]
*463 x_4[13]
*464 x_4[12]
*465 x_4[11]
*466 x_4[10]
*467 x_4[9]
*468 x_4[8]
*469 x_4[7]
*470 x_4[6]
*471 x_4[5]
*472 x_4[4]
*473 x_4[3]
*474 x_4[2]
*475 x_4[1]
*476 x_4[0]
*477 x_3[16]
*478 x_3[15]
*479 x_3[14]
*480 x_3[13]
*481 x_3[12]
*482 x_3[11]
*483 x_3[10]
*484 x_3[9]
*485 x_3[8]
*486 x_3[7]
*487 x_3[6]
*488 x_3[5]
*489 x_3[4]
*490 x_3[3]
*491 x_3[2]
*492 x_3[1]
*493 x_3[0]
*494 x_2[16]
*495 x_2[15]
*496 x_2[14]
*497 x_2[13]
*498 x_2[12]
*499 x_2[11]
*500 x_2[10]
*501 x_2[9]
*502 x_2[8]
*503 x_2[7]
*504 x_2[6]
*505 x_2[5]
*506 x_2[4]
*507 x_2[3]
*508 x_2[2]
*509 x_2[1]
*510 x_2[0]
*511 x_1[16]
*512 x_1[15]
*513 x_1[14]
*514 x_1[13]
*515 x_1[12]
*516 x_1[11]
*517 x_1[10]
*518 x_1[9]
*519 x_1[8]
*520 x_1[7]
*521 x_1[6]
*522 x_1[5]
*523 x_1[4]
*524 x_1[3]
*525 x_1[2]
*526 x_1[1]
*527 x_1[0]
*528 x_0[16]
*529 x_0[15]
*530 x_0[14]
*531 x_0[13]
*532 x_0[12]
*533 x_0[11]
*534 x_0[10]
*535 x_0[9]
*536 x_0[8]
*537 x_0[7]
*538 x_0[6]
*539 x_0[5]
*540 x_0[4]
*541 x_0[3]
*542 x_0[2]
*543 x_0[1]
*544 x_0[0]
*545 X_31[31]
*546 X_31[30]
*547 X_31[29]
*548 X_31[28]
*549 X_31[27]
*550 X_31[26]
*551 X_31[25]
*552 X_31[24]
*553 X_31[23]
*554 X_31[22]
*555 X_31[21]
*556 X_31[20]
*557 X_31[19]
*558 X_31[18]
*559 X_31[17]
*560 X_31[16]
*561 X_31[15]
*562 X_31[14]
*563 X_31[13]
*564 X_31[12]
*565 X_31[11]
*566 X_31[10]
*567 X_31[9]
*568 X_31[8]
*569 X_31[7]
*570 X_31[6]
*571 X_31[5]
*572 X_31[4]
*573 X_31[3]
*574 X_31[2]
*575 X_31[1]
*576 X_31[0]
*577 X_30[31]
*578 X_30[30]
*579 X_30[29]
*580 X_30[28]
*581 X_30[27]
*582 X_30[26]
*583 X_30[25]
*584 X_30[24]
*585 X_30[23]
*586 X_30[22]
*587 X_30[21]
*588 X_30[20]
*589 X_30[19]
*590 X_30[18]
*591 X_30[17]
*592 X_30[16]
*593 X_30[15]
*594 X_30[14]
*595 X_30[13]
*596 X_30[12]
*597 X_30[11]
*598 X_30[10]
*599 X_30[9]
*600 X_30[8]
*601 X_30[7]
*602 X_30[6]
*603 X_30[5]
*604 X_30[4]
*605 X_30[3]
*606 X_30[2]
*607 X_30[1]
*608 X_30[0]
*609 X_29[31]
*610 X_29[30]
*611 X_29[29]
*612 X_29[28]
*613 X_29[27]
*614 X_29[26]
*615 X_29[25]
*616 X_29[24]
*617 X_29[23]
*618 X_29[22]
*619 X_29[21]
*620 X_29[20]
*621 X_29[19]
*622 X_29[18]
*623 X_29[17]
*624 X_29[16]
*625 X_29[15]
*626 X_29[14]
*627 X_29[13]
*628 X_29[12]
*629 X_29[11]
*630 X_29[10]
*631 X_29[9]
*632 X_29[8]
*633 X_29[7]
*634 X_29[6]
*635 X_29[5]
*636 X_29[4]
*637 X_29[3]
*638 X_29[2]
*639 X_29[1]
*640 X_29[0]
*641 X_28[31]
*642 X_28[30]
*643 X_28[29]
*644 X_28[28]
*645 X_28[27]
*646 X_28[26]
*647 X_28[25]
*648 X_28[24]
*649 X_28[23]
*650 X_28[22]
*651 X_28[21]
*652 X_28[20]
*653 X_28[19]
*654 X_28[18]
*655 X_28[17]
*656 X_28[16]
*657 X_28[15]
*658 X_28[14]
*659 X_28[13]
*660 X_28[12]
*661 X_28[11]
*662 X_28[10]
*663 X_28[9]
*664 X_28[8]
*665 X_28[7]
*666 X_28[6]
*667 X_28[5]
*668 X_28[4]
*669 X_28[3]
*670 X_28[2]
*671 X_28[1]
*672 X_28[0]
*673 X_27[31]
*674 X_27[30]
*675 X_27[29]
*676 X_27[28]
*677 X_27[27]
*678 X_27[26]
*679 X_27[25]
*680 X_27[24]
*681 X_27[23]
*682 X_27[22]
*683 X_27[21]
*684 X_27[20]
*685 X_27[19]
*686 X_27[18]
*687 X_27[17]
*688 X_27[16]
*689 X_27[15]
*690 X_27[14]
*691 X_27[13]
*692 X_27[12]
*693 X_27[11]
*694 X_27[10]
*695 X_27[9]
*696 X_27[8]
*697 X_27[7]
*698 X_27[6]
*699 X_27[5]
*700 X_27[4]
*701 X_27[3]
*702 X_27[2]
*703 X_27[1]
*704 X_27[0]
*705 X_26[31]
*706 X_26[30]
*707 X_26[29]
*708 X_26[28]
*709 X_26[27]
*710 X_26[26]
*711 X_26[25]
*712 X_26[24]
*713 X_26[23]
*714 X_26[22]
*715 X_26[21]
*716 X_26[20]
*717 X_26[19]
*718 X_26[18]
*719 X_26[17]
*720 X_26[16]
*721 X_26[15]
*722 X_26[14]
*723 X_26[13]
*724 X_26[12]
*725 X_26[11]
*726 X_26[10]
*727 X_26[9]
*728 X_26[8]
*729 X_26[7]
*730 X_26[6]
*731 X_26[5]
*732 X_26[4]
*733 X_26[3]
*734 X_26[2]
*735 X_26[1]
*736 X_26[0]
*737 X_25[31]
*738 X_25[30]
*739 X_25[29]
*740 X_25[28]
*741 X_25[27]
*742 X_25[26]
*743 X_25[25]
*744 X_25[24]
*745 X_25[23]
*746 X_25[22]
*747 X_25[21]
*748 X_25[20]
*749 X_25[19]
*750 X_25[18]
*751 X_25[17]
*752 X_25[16]
*753 X_25[15]
*754 X_25[14]
*755 X_25[13]
*756 X_25[12]
*757 X_25[11]
*758 X_25[10]
*759 X_25[9]
*760 X_25[8]
*761 X_25[7]
*762 X_25[6]
*763 X_25[5]
*764 X_25[4]
*765 X_25[3]
*766 X_25[2]
*767 X_25[1]
*768 X_25[0]
*769 X_24[31]
*770 X_24[30]
*771 X_24[29]
*772 X_24[28]
*773 X_24[27]
*774 X_24[26]
*775 X_24[25]
*776 X_24[24]
*777 X_24[23]
*778 X_24[22]
*779 X_24[21]
*780 X_24[20]
*781 X_24[19]
*782 X_24[18]
*783 X_24[17]
*784 X_24[16]
*785 X_24[15]
*786 X_24[14]
*787 X_24[13]
*788 X_24[12]
*789 X_24[11]
*790 X_24[10]
*791 X_24[9]
*792 X_24[8]
*793 X_24[7]
*794 X_24[6]
*795 X_24[5]
*796 X_24[4]
*797 X_24[3]
*798 X_24[2]
*799 X_24[1]
*800 X_24[0]
*801 X_23[31]
*802 X_23[30]
*803 X_23[29]
*804 X_23[28]
*805 X_23[27]
*806 X_23[26]
*807 X_23[25]
*808 X_23[24]
*809 X_23[23]
*810 X_23[22]
*811 X_23[21]
*812 X_23[20]
*813 X_23[19]
*814 X_23[18]
*815 X_23[17]
*816 X_23[16]
*817 X_23[15]
*818 X_23[14]
*819 X_23[13]
*820 X_23[12]
*821 X_23[11]
*822 X_23[10]
*823 X_23[9]
*824 X_23[8]
*825 X_23[7]
*826 X_23[6]
*827 X_23[5]
*828 X_23[4]
*829 X_23[3]
*830 X_23[2]
*831 X_23[1]
*832 X_23[0]
*833 X_22[31]
*834 X_22[30]
*835 X_22[29]
*836 X_22[28]
*837 X_22[27]
*838 X_22[26]
*839 X_22[25]
*840 X_22[24]
*841 X_22[23]
*842 X_22[22]
*843 X_22[21]
*844 X_22[20]
*845 X_22[19]
*846 X_22[18]
*847 X_22[17]
*848 X_22[16]
*849 X_22[15]
*850 X_22[14]
*851 X_22[13]
*852 X_22[12]
*853 X_22[11]
*854 X_22[10]
*855 X_22[9]
*856 X_22[8]
*857 X_22[7]
*858 X_22[6]
*859 X_22[5]
*860 X_22[4]
*861 X_22[3]
*862 X_22[2]
*863 X_22[1]
*864 X_22[0]
*865 X_21[31]
*866 X_21[30]
*867 X_21[29]
*868 X_21[28]
*869 X_21[27]
*870 X_21[26]
*871 X_21[25]
*872 X_21[24]
*873 X_21[23]
*874 X_21[22]
*875 X_21[21]
*876 X_21[20]
*877 X_21[19]
*878 X_21[18]
*879 X_21[17]
*880 X_21[16]
*881 X_21[15]
*882 X_21[14]
*883 X_21[13]
*884 X_21[12]
*885 X_21[11]
*886 X_21[10]
*887 X_21[9]
*888 X_21[8]
*889 X_21[7]
*890 X_21[6]
*891 X_21[5]
*892 X_21[4]
*893 X_21[3]
*894 X_21[2]
*895 X_21[1]
*896 X_21[0]
*897 X_20[31]
*898 X_20[30]
*899 X_20[29]
*900 X_20[28]
*901 X_20[27]
*902 X_20[26]
*903 X_20[25]
*904 X_20[24]
*905 X_20[23]
*906 X_20[22]
*907 X_20[21]
*908 X_20[20]
*909 X_20[19]
*910 X_20[18]
*911 X_20[17]
*912 X_20[16]
*913 X_20[15]
*914 X_20[14]
*915 X_20[13]
*916 X_20[12]
*917 X_20[11]
*918 X_20[10]
*919 X_20[9]
*920 X_20[8]
*921 X_20[7]
*922 X_20[6]
*923 X_20[5]
*924 X_20[4]
*925 X_20[3]
*926 X_20[2]
*927 X_20[1]
*928 X_20[0]
*929 X_19[31]
*930 X_19[30]
*931 X_19[29]
*932 X_19[28]
*933 X_19[27]
*934 X_19[26]
*935 X_19[25]
*936 X_19[24]
*937 X_19[23]
*938 X_19[22]
*939 X_19[21]
*940 X_19[20]
*941 X_19[19]
*942 X_19[18]
*943 X_19[17]
*944 X_19[16]
*945 X_19[15]
*946 X_19[14]
*947 X_19[13]
*948 X_19[12]
*949 X_19[11]
*950 X_19[10]
*951 X_19[9]
*952 X_19[8]
*953 X_19[7]
*954 X_19[6]
*955 X_19[5]
*956 X_19[4]
*957 X_19[3]
*958 X_19[2]
*959 X_19[1]
*960 X_19[0]
*961 X_18[31]
*962 X_18[30]
*963 X_18[29]
*964 X_18[28]
*965 X_18[27]
*966 X_18[26]
*967 X_18[25]
*968 X_18[24]
*969 X_18[23]
*970 X_18[22]
*971 X_18[21]
*972 X_18[20]
*973 X_18[19]
*974 X_18[18]
*975 X_18[17]
*976 X_18[16]
*977 X_18[15]
*978 X_18[14]
*979 X_18[13]
*980 X_18[12]
*981 X_18[11]
*982 X_18[10]
*983 X_18[9]
*984 X_18[8]
*985 X_18[7]
*986 X_18[6]
*987 X_18[5]
*988 X_18[4]
*989 X_18[3]
*990 X_18[2]
*991 X_18[1]
*992 X_18[0]
*993 X_17[31]
*994 X_17[30]
*995 X_17[29]
*996 X_17[28]
*997 X_17[27]
*998 X_17[26]
*999 X_17[25]
*1000 X_17[24]
*1001 X_17[23]
*1002 X_17[22]
*1003 X_17[21]
*1004 X_17[20]
*1005 X_17[19]
*1006 X_17[18]
*1007 X_17[17]
*1008 X_17[16]
*1009 X_17[15]
*1010 X_17[14]
*1011 X_17[13]
*1012 X_17[12]
*1013 X_17[11]
*1014 X_17[10]
*1015 X_17[9]
*1016 X_17[8]
*1017 X_17[7]
*1018 X_17[6]
*1019 X_17[5]
*1020 X_17[4]
*1021 X_17[3]
*1022 X_17[2]
*1023 X_17[1]
*1024 X_17[0]
*1025 X_16[31]
*1026 X_16[30]
*1027 X_16[29]
*1028 X_16[28]
*1029 X_16[27]
*1030 X_16[26]
*1031 X_16[25]
*1032 X_16[24]
*1033 X_16[23]
*1034 X_16[22]
*1035 X_16[21]
*1036 X_16[20]
*1037 X_16[19]
*1038 X_16[18]
*1039 X_16[17]
*1040 X_16[16]
*1041 X_16[15]
*1042 X_16[14]
*1043 X_16[13]
*1044 X_16[12]
*1045 X_16[11]
*1046 X_16[10]
*1047 X_16[9]
*1048 X_16[8]
*1049 X_16[7]
*1050 X_16[6]
*1051 X_16[5]
*1052 X_16[4]
*1053 X_16[3]
*1054 X_16[2]
*1055 X_16[1]
*1056 X_16[0]
*1057 X_15[31]
*1058 X_15[30]
*1059 X_15[29]
*1060 X_15[28]
*1061 X_15[27]
*1062 X_15[26]
*1063 X_15[25]
*1064 X_15[24]
*1065 X_15[23]
*1066 X_15[22]
*1067 X_15[21]
*1068 X_15[20]
*1069 X_15[19]
*1070 X_15[18]
*1071 X_15[17]
*1072 X_15[16]
*1073 X_15[15]
*1074 X_15[14]
*1075 X_15[13]
*1076 X_15[12]
*1077 X_15[11]
*1078 X_15[10]
*1079 X_15[9]
*1080 X_15[8]
*1081 X_15[7]
*1082 X_15[6]
*1083 X_15[5]
*1084 X_15[4]
*1085 X_15[3]
*1086 X_15[2]
*1087 X_15[1]
*1088 X_15[0]
*1089 X_14[31]
*1090 X_14[30]
*1091 X_14[29]
*1092 X_14[28]
*1093 X_14[27]
*1094 X_14[26]
*1095 X_14[25]
*1096 X_14[24]
*1097 X_14[23]
*1098 X_14[22]
*1099 X_14[21]
*1100 X_14[20]
*1101 X_14[19]
*1102 X_14[18]
*1103 X_14[17]
*1104 X_14[16]
*1105 X_14[15]
*1106 X_14[14]
*1107 X_14[13]
*1108 X_14[12]
*1109 X_14[11]
*1110 X_14[10]
*1111 X_14[9]
*1112 X_14[8]
*1113 X_14[7]
*1114 X_14[6]
*1115 X_14[5]
*1116 X_14[4]
*1117 X_14[3]
*1118 X_14[2]
*1119 X_14[1]
*1120 X_14[0]
*1121 X_13[31]
*1122 X_13[30]
*1123 X_13[29]
*1124 X_13[28]
*1125 X_13[27]
*1126 X_13[26]
*1127 X_13[25]
*1128 X_13[24]
*1129 X_13[23]
*1130 X_13[22]
*1131 X_13[21]
*1132 X_13[20]
*1133 X_13[19]
*1134 X_13[18]
*1135 X_13[17]
*1136 X_13[16]
*1137 X_13[15]
*1138 X_13[14]
*1139 X_13[13]
*1140 X_13[12]
*1141 X_13[11]
*1142 X_13[10]
*1143 X_13[9]
*1144 X_13[8]
*1145 X_13[7]
*1146 X_13[6]
*1147 X_13[5]
*1148 X_13[4]
*1149 X_13[3]
*1150 X_13[2]
*1151 X_13[1]
*1152 X_13[0]
*1153 X_12[31]
*1154 X_12[30]
*1155 X_12[29]
*1156 X_12[28]
*1157 X_12[27]
*1158 X_12[26]
*1159 X_12[25]
*1160 X_12[24]
*1161 X_12[23]
*1162 X_12[22]
*1163 X_12[21]
*1164 X_12[20]
*1165 X_12[19]
*1166 X_12[18]
*1167 X_12[17]
*1168 X_12[16]
*1169 X_12[15]
*1170 X_12[14]
*1171 X_12[13]
*1172 X_12[12]
*1173 X_12[11]
*1174 X_12[10]
*1175 X_12[9]
*1176 X_12[8]
*1177 X_12[7]
*1178 X_12[6]
*1179 X_12[5]
*1180 X_12[4]
*1181 X_12[3]
*1182 X_12[2]
*1183 X_12[1]
*1184 X_12[0]
*1185 X_11[31]
*1186 X_11[30]
*1187 X_11[29]
*1188 X_11[28]
*1189 X_11[27]
*1190 X_11[26]
*1191 X_11[25]
*1192 X_11[24]
*1193 X_11[23]
*1194 X_11[22]
*1195 X_11[21]
*1196 X_11[20]
*1197 X_11[19]
*1198 X_11[18]
*1199 X_11[17]
*1200 X_11[16]
*1201 X_11[15]
*1202 X_11[14]
*1203 X_11[13]
*1204 X_11[12]
*1205 X_11[11]
*1206 X_11[10]
*1207 X_11[9]
*1208 X_11[8]
*1209 X_11[7]
*1210 X_11[6]
*1211 X_11[5]
*1212 X_11[4]
*1213 X_11[3]
*1214 X_11[2]
*1215 X_11[1]
*1216 X_11[0]
*1217 X_10[31]
*1218 X_10[30]
*1219 X_10[29]
*1220 X_10[28]
*1221 X_10[27]
*1222 X_10[26]
*1223 X_10[25]
*1224 X_10[24]
*1225 X_10[23]
*1226 X_10[22]
*1227 X_10[21]
*1228 X_10[20]
*1229 X_10[19]
*1230 X_10[18]
*1231 X_10[17]
*1232 X_10[16]
*1233 X_10[15]
*1234 X_10[14]
*1235 X_10[13]
*1236 X_10[12]
*1237 X_10[11]
*1238 X_10[10]
*1239 X_10[9]
*1240 X_10[8]
*1241 X_10[7]
*1242 X_10[6]
*1243 X_10[5]
*1244 X_10[4]
*1245 X_10[3]
*1246 X_10[2]
*1247 X_10[1]
*1248 X_10[0]
*1249 X_9[31]
*1250 X_9[30]
*1251 X_9[29]
*1252 X_9[28]
*1253 X_9[27]
*1254 X_9[26]
*1255 X_9[25]
*1256 X_9[24]
*1257 X_9[23]
*1258 X_9[22]
*1259 X_9[21]
*1260 X_9[20]
*1261 X_9[19]
*1262 X_9[18]
*1263 X_9[17]
*1264 X_9[16]
*1265 X_9[15]
*1266 X_9[14]
*1267 X_9[13]
*1268 X_9[12]
*1269 X_9[11]
*1270 X_9[10]
*1271 X_9[9]
*1272 X_9[8]
*1273 X_9[7]
*1274 X_9[6]
*1275 X_9[5]
*1276 X_9[4]
*1277 X_9[3]
*1278 X_9[2]
*1279 X_9[1]
*1280 X_9[0]
*1281 X_8[31]
*1282 X_8[30]
*1283 X_8[29]
*1284 X_8[28]
*1285 X_8[27]
*1286 X_8[26]
*1287 X_8[25]
*1288 X_8[24]
*1289 X_8[23]
*1290 X_8[22]
*1291 X_8[21]
*1292 X_8[20]
*1293 X_8[19]
*1294 X_8[18]
*1295 X_8[17]
*1296 X_8[16]
*1297 X_8[15]
*1298 X_8[14]
*1299 X_8[13]
*1300 X_8[12]
*1301 X_8[11]
*1302 X_8[10]
*1303 X_8[9]
*1304 X_8[8]
*1305 X_8[7]
*1306 X_8[6]
*1307 X_8[5]
*1308 X_8[4]
*1309 X_8[3]
*1310 X_8[2]
*1311 X_8[1]
*1312 X_8[0]
*1313 X_7[31]
*1314 X_7[30]
*1315 X_7[29]
*1316 X_7[28]
*1317 X_7[27]
*1318 X_7[26]
*1319 X_7[25]
*1320 X_7[24]
*1321 X_7[23]
*1322 X_7[22]
*1323 X_7[21]
*1324 X_7[20]
*1325 X_7[19]
*1326 X_7[18]
*1327 X_7[17]
*1328 X_7[16]
*1329 X_7[15]
*1330 X_7[14]
*1331 X_7[13]
*1332 X_7[12]
*1333 X_7[11]
*1334 X_7[10]
*1335 X_7[9]
*1336 X_7[8]
*1337 X_7[7]
*1338 X_7[6]
*1339 X_7[5]
*1340 X_7[4]
*1341 X_7[3]
*1342 X_7[2]
*1343 X_7[1]
*1344 X_7[0]
*1345 X_6[31]
*1346 X_6[30]
*1347 X_6[29]
*1348 X_6[28]
*1349 X_6[27]
*1350 X_6[26]
*1351 X_6[25]
*1352 X_6[24]
*1353 X_6[23]
*1354 X_6[22]
*1355 X_6[21]
*1356 X_6[20]
*1357 X_6[19]
*1358 X_6[18]
*1359 X_6[17]
*1360 X_6[16]
*1361 X_6[15]
*1362 X_6[14]
*1363 X_6[13]
*1364 X_6[12]
*1365 X_6[11]
*1366 X_6[10]
*1367 X_6[9]
*1368 X_6[8]
*1369 X_6[7]
*1370 X_6[6]
*1371 X_6[5]
*1372 X_6[4]
*1373 X_6[3]
*1374 X_6[2]
*1375 X_6[1]
*1376 X_6[0]
*1377 X_5[31]
*1378 X_5[30]
*1379 X_5[29]
*1380 X_5[28]
*1381 X_5[27]
*1382 X_5[26]
*1383 X_5[25]
*1384 X_5[24]
*1385 X_5[23]
*1386 X_5[22]
*1387 X_5[21]
*1388 X_5[20]
*1389 X_5[19]
*1390 X_5[18]
*1391 X_5[17]
*1392 X_5[16]
*1393 X_5[15]
*1394 X_5[14]
*1395 X_5[13]
*1396 X_5[12]
*1397 X_5[11]
*1398 X_5[10]
*1399 X_5[9]
*1400 X_5[8]
*1401 X_5[7]
*1402 X_5[6]
*1403 X_5[5]
*1404 X_5[4]
*1405 X_5[3]
*1406 X_5[2]
*1407 X_5[1]
*1408 X_5[0]
*1409 X_4[31]
*1410 X_4[30]
*1411 X_4[29]
*1412 X_4[28]
*1413 X_4[27]
*1414 X_4[26]
*1415 X_4[25]
*1416 X_4[24]
*1417 X_4[23]
*1418 X_4[22]
*1419 X_4[21]
*1420 X_4[20]
*1421 X_4[19]
*1422 X_4[18]
*1423 X_4[17]
*1424 X_4[16]
*1425 X_4[15]
*1426 X_4[14]
*1427 X_4[13]
*1428 X_4[12]
*1429 X_4[11]
*1430 X_4[10]
*1431 X_4[9]
*1432 X_4[8]
*1433 X_4[7]
*1434 X_4[6]
*1435 X_4[5]
*1436 X_4[4]
*1437 X_4[3]
*1438 X_4[2]
*1439 X_4[1]
*1440 X_4[0]
*1441 X_3[31]
*1442 X_3[30]
*1443 X_3[29]
*1444 X_3[28]
*1445 X_3[27]
*1446 X_3[26]
*1447 X_3[25]
*1448 X_3[24]
*1449 X_3[23]
*1450 X_3[22]
*1451 X_3[21]
*1452 X_3[20]
*1453 X_3[19]
*1454 X_3[18]
*1455 X_3[17]
*1456 X_3[16]
*1457 X_3[15]
*1458 X_3[14]
*1459 X_3[13]
*1460 X_3[12]
*1461 X_3[11]
*1462 X_3[10]
*1463 X_3[9]
*1464 X_3[8]
*1465 X_3[7]
*1466 X_3[6]
*1467 X_3[5]
*1468 X_3[4]
*1469 X_3[3]
*1470 X_3[2]
*1471 X_3[1]
*1472 X_3[0]
*1473 X_2[31]
*1474 X_2[30]
*1475 X_2[29]
*1476 X_2[28]
*1477 X_2[27]
*1478 X_2[26]
*1479 X_2[25]
*1480 X_2[24]
*1481 X_2[23]
*1482 X_2[22]
*1483 X_2[21]
*1484 X_2[20]
*1485 X_2[19]
*1486 X_2[18]
*1487 X_2[17]
*1488 X_2[16]
*1489 X_2[15]
*1490 X_2[14]
*1491 X_2[13]
*1492 X_2[12]
*1493 X_2[11]
*1494 X_2[10]
*1495 X_2[9]
*1496 X_2[8]
*1497 X_2[7]
*1498 X_2[6]
*1499 X_2[5]
*1500 X_2[4]
*1501 X_2[3]
*1502 X_2[2]
*1503 X_2[1]
*1504 X_2[0]
*1505 X_1[31]
*1506 X_1[30]
*1507 X_1[29]
*1508 X_1[28]
*1509 X_1[27]
*1510 X_1[26]
*1511 X_1[25]
*1512 X_1[24]
*1513 X_1[23]
*1514 X_1[22]
*1515 X_1[21]
*1516 X_1[20]
*1517 X_1[19]
*1518 X_1[18]
*1519 X_1[17]
*1520 X_1[16]
*1521 X_1[15]
*1522 X_1[14]
*1523 X_1[13]
*1524 X_1[12]
*1525 X_1[11]
*1526 X_1[10]
*1527 X_1[9]
*1528 X_1[8]
*1529 X_1[7]
*1530 X_1[6]
*1531 X_1[5]
*1532 X_1[4]
*1533 X_1[3]
*1534 X_1[2]
*1535 X_1[1]
*1536 X_1[0]
*1537 X_0[31]
*1538 X_0[30]
*1539 X_0[29]
*1540 X_0[28]
*1541 X_0[27]
*1542 X_0[26]
*1543 X_0[25]
*1544 X_0[24]
*1545 X_0[23]
*1546 X_0[22]
*1547 X_0[21]
*1548 X_0[20]
*1549 X_0[19]
*1550 X_0[18]
*1551 X_0[17]
*1552 X_0[16]
*1553 X_0[15]
*1554 X_0[14]
*1555 X_0[13]
*1556 X_0[12]
*1557 X_0[11]
*1558 X_0[10]
*1559 X_0[9]
*1560 X_0[8]
*1561 X_0[7]
*1562 X_0[6]
*1563 X_0[5]
*1564 X_0[4]
*1565 X_0[3]
*1566 X_0[2]
*1567 X_0[1]
*1568 X_0[0]
*1569 X_0[31]
*1570 X_0[30]
*1571 X_0[29]
*1572 X_0[28]
*1573 X_0[27]
*1574 X_0[26]
*1575 X_0[25]
*1576 X_0[24]
*1577 X_0[23]
*1578 X_0[22]
*1579 X_0[21]
*1580 X_0[20]
*1581 X_0[19]
*1582 X_0[18]
*1583 X_0[17]
*1584 X_0[16]
*1585 X_0[15]
*1586 X_0[14]
*1587 X_0[13]
*1588 X_0[12]
*1589 X_0[11]
*1590 X_0[10]
*1591 X_0[9]
*1592 X_0[8]
*1593 X_0[7]
*1594 X_0[6]
*1595 X_0[5]
*1596 X_0[4]
*1597 X_0[3]
*1598 X_0[2]
*1599 X_0[1]
*1600 X_0[0]
*1601 X_1[31]
*1602 X_1[30]
*1603 X_1[29]
*1604 X_1[28]
*1605 X_1[27]
*1606 X_1[26]
*1607 X_1[25]
*1608 X_1[24]
*1609 X_1[23]
*1610 X_1[22]
*1611 X_1[21]
*1612 X_1[20]
*1613 X_1[19]
*1614 X_1[18]
*1615 X_1[17]
*1616 X_1[16]
*1617 X_1[15]
*1618 X_1[14]
*1619 X_1[13]
*1620 X_1[12]
*1621 X_1[11]
*1622 X_1[10]
*1623 X_1[9]
*1624 X_1[8]
*1625 X_1[7]
*1626 X_1[6]
*1627 X_1[5]
*1628 X_1[4]
*1629 X_1[3]
*1630 X_1[2]
*1631 X_1[1]
*1632 X_1[0]
*1633 X_2[31]
*1634 X_2[30]
*1635 X_2[29]
*1636 X_2[28]
*1637 X_2[27]
*1638 X_2[26]
*1639 X_2[25]
*1640 X_2[24]
*1641 X_2[23]
*1642 X_2[22]
*1643 X_2[21]
*1644 X_2[20]
*1645 X_2[19]
*1646 X_2[18]
*1647 X_2[17]
*1648 X_2[16]
*1649 X_2[15]
*1650 X_2[14]
*1651 X_2[13]
*1652 X_2[12]
*1653 X_2[11]
*1654 X_2[10]
*1655 X_2[9]
*1656 X_2[8]
*1657 X_2[7]
*1658 X_2[6]
*1659 X_2[5]
*1660 X_2[4]
*1661 X_2[3]
*1662 X_2[2]
*1663 X_2[1]
*1664 X_2[0]
*1665 X_3[31]
*1666 X_3[30]
*1667 X_3[29]
*1668 X_3[28]
*1669 X_3[27]
*1670 X_3[26]
*1671 X_3[25]
*1672 X_3[24]
*1673 X_3[23]
*1674 X_3[22]
*1675 X_3[21]
*1676 X_3[20]
*1677 X_3[19]
*1678 X_3[18]
*1679 X_3[17]
*1680 X_3[16]
*1681 X_3[15]
*1682 X_3[14]
*1683 X_3[13]
*1684 X_3[12]
*1685 X_3[11]
*1686 X_3[10]
*1687 X_3[9]
*1688 X_3[8]
*1689 X_3[7]
*1690 X_3[6]
*1691 X_3[5]
*1692 X_3[4]
*1693 X_3[3]
*1694 X_3[2]
*1695 X_3[1]
*1696 X_3[0]
*1697 X_4[31]
*1698 X_4[30]
*1699 X_4[29]
*1700 X_4[28]
*1701 X_4[27]
*1702 X_4[26]
*1703 X_4[25]
*1704 X_4[24]
*1705 X_4[23]
*1706 X_4[22]
*1707 X_4[21]
*1708 X_4[20]
*1709 X_4[19]
*1710 X_4[18]
*1711 X_4[17]
*1712 X_4[16]
*1713 X_4[15]
*1714 X_4[14]
*1715 X_4[13]
*1716 X_4[12]
*1717 X_4[11]
*1718 X_4[10]
*1719 X_4[9]
*1720 X_4[8]
*1721 X_4[7]
*1722 X_4[6]
*1723 X_4[5]
*1724 X_4[4]
*1725 X_4[3]
*1726 X_4[2]
*1727 X_4[1]
*1728 X_4[0]
*1729 X_5[31]
*1730 X_5[30]
*1731 X_5[29]
*1732 X_5[28]
*1733 X_5[27]
*1734 X_5[26]
*1735 X_5[25]
*1736 X_5[24]
*1737 X_5[23]
*1738 X_5[22]
*1739 X_5[21]
*1740 X_5[20]
*1741 X_5[19]
*1742 X_5[18]
*1743 X_5[17]
*1744 X_5[16]
*1745 X_5[15]
*1746 X_5[14]
*1747 X_5[13]
*1748 X_5[12]
*1749 X_5[11]
*1750 X_5[10]
*1751 X_5[9]
*1752 X_5[8]
*1753 X_5[7]
*1754 X_5[6]
*1755 X_5[5]
*1756 X_5[4]
*1757 X_5[3]
*1758 X_5[2]
*1759 X_5[1]
*1760 X_5[0]
*1761 X_6[31]
*1762 X_6[30]
*1763 X_6[29]
*1764 X_6[28]
*1765 X_6[27]
*1766 X_6[26]
*1767 X_6[25]
*1768 X_6[24]
*1769 X_6[23]
*1770 X_6[22]
*1771 X_6[21]
*1772 X_6[20]
*1773 X_6[19]
*1774 X_6[18]
*1775 X_6[17]
*1776 X_6[16]
*1777 X_6[15]
*1778 X_6[14]
*1779 X_6[13]
*1780 X_6[12]
*1781 X_6[11]
*1782 X_6[10]
*1783 X_6[9]
*1784 X_6[8]
*1785 X_6[7]
*1786 X_6[6]
*1787 X_6[5]
*1788 X_6[4]
*1789 X_6[3]
*1790 X_6[2]
*1791 X_6[1]
*1792 X_6[0]
*1793 X_7[31]
*1794 X_7[30]
*1795 X_7[29]
*1796 X_7[28]
*1797 X_7[27]
*1798 X_7[26]
*1799 X_7[25]
*1800 X_7[24]
*1801 X_7[23]
*1802 X_7[22]
*1803 X_7[21]
*1804 X_7[20]
*1805 X_7[19]
*1806 X_7[18]
*1807 X_7[17]
*1808 X_7[16]
*1809 X_7[15]
*1810 X_7[14]
*1811 X_7[13]
*1812 X_7[12]
*1813 X_7[11]
*1814 X_7[10]
*1815 X_7[9]
*1816 X_7[8]
*1817 X_7[7]
*1818 X_7[6]
*1819 X_7[5]
*1820 X_7[4]
*1821 X_7[3]
*1822 X_7[2]
*1823 X_7[1]
*1824 X_7[0]
*1825 X_8[31]
*1826 X_8[30]
*1827 X_8[29]
*1828 X_8[28]
*1829 X_8[27]
*1830 X_8[26]
*1831 X_8[25]
*1832 X_8[24]
*1833 X_8[23]
*1834 X_8[22]
*1835 X_8[21]
*1836 X_8[20]
*1837 X_8[19]
*1838 X_8[18]
*1839 X_8[17]
*1840 X_8[16]
*1841 X_8[15]
*1842 X_8[14]
*1843 X_8[13]
*1844 X_8[12]
*1845 X_8[11]
*1846 X_8[10]
*1847 X_8[9]
*1848 X_8[8]
*1849 X_8[7]
*1850 X_8[6]
*1851 X_8[5]
*1852 X_8[4]
*1853 X_8[3]
*1854 X_8[2]
*1855 X_8[1]
*1856 X_8[0]
*1857 X_9[31]
*1858 X_9[30]
*1859 X_9[29]
*1860 X_9[28]
*1861 X_9[27]
*1862 X_9[26]
*1863 X_9[25]
*1864 X_9[24]
*1865 X_9[23]
*1866 X_9[22]
*1867 X_9[21]
*1868 X_9[20]
*1869 X_9[19]
*1870 X_9[18]
*1871 X_9[17]
*1872 X_9[16]
*1873 X_9[15]
*1874 X_9[14]
*1875 X_9[13]
*1876 X_9[12]
*1877 X_9[11]
*1878 X_9[10]
*1879 X_9[9]
*1880 X_9[8]
*1881 X_9[7]
*1882 X_9[6]
*1883 X_9[5]
*1884 X_9[4]
*1885 X_9[3]
*1886 X_9[2]
*1887 X_9[1]
*1888 X_9[0]
*1889 X_10[31]
*1890 X_10[30]
*1891 X_10[29]
*1892 X_10[28]
*1893 X_10[27]
*1894 X_10[26]
*1895 X_10[25]
*1896 X_10[24]
*1897 X_10[23]
*1898 X_10[22]
*1899 X_10[21]
*1900 X_10[20]
*1901 X_10[19]
*1902 X_10[18]
*1903 X_10[17]
*1904 X_10[16]
*1905 X_10[15]
*1906 X_10[14]
*1907 X_10[13]
*1908 X_10[12]
*1909 X_10[11]
*1910 X_10[10]
*1911 X_10[9]
*1912 X_10[8]
*1913 X_10[7]
*1914 X_10[6]
*1915 X_10[5]
*1916 X_10[4]
*1917 X_10[3]
*1918 X_10[2]
*1919 X_10[1]
*1920 X_10[0]
*1921 X_11[31]
*1922 X_11[30]
*1923 X_11[29]
*1924 X_11[28]
*1925 X_11[27]
*1926 X_11[26]
*1927 X_11[25]
*1928 X_11[24]
*1929 X_11[23]
*1930 X_11[22]
*1931 X_11[21]
*1932 X_11[20]
*1933 X_11[19]
*1934 X_11[18]
*1935 X_11[17]
*1936 X_11[16]
*1937 X_11[15]
*1938 X_11[14]
*1939 X_11[13]
*1940 X_11[12]
*1941 X_11[11]
*1942 X_11[10]
*1943 X_11[9]
*1944 X_11[8]
*1945 X_11[7]
*1946 X_11[6]
*1947 X_11[5]
*1948 X_11[4]
*1949 X_11[3]
*1950 X_11[2]
*1951 X_11[1]
*1952 X_11[0]
*1953 X_12[31]
*1954 X_12[30]
*1955 X_12[29]
*1956 X_12[28]
*1957 X_12[27]
*1958 X_12[26]
*1959 X_12[25]
*1960 X_12[24]
*1961 X_12[23]
*1962 X_12[22]
*1963 X_12[21]
*1964 X_12[20]
*1965 X_12[19]
*1966 X_12[18]
*1967 X_12[17]
*1968 X_12[16]
*1969 X_12[15]
*1970 X_12[14]
*1971 X_12[13]
*1972 X_12[12]
*1973 X_12[11]
*1974 X_12[10]
*1975 X_12[9]
*1976 X_12[8]
*1977 X_12[7]
*1978 X_12[6]
*1979 X_12[5]
*1980 X_12[4]
*1981 X_12[3]
*1982 X_12[2]
*1983 X_12[1]
*1984 X_12[0]
*1985 X_13[31]
*1986 X_13[30]
*1987 X_13[29]
*1988 X_13[28]
*1989 X_13[27]
*1990 X_13[26]
*1991 X_13[25]
*1992 X_13[24]
*1993 X_13[23]
*1994 X_13[22]
*1995 X_13[21]
*1996 X_13[20]
*1997 X_13[19]
*1998 X_13[18]
*1999 X_13[17]
*2000 X_13[16]
*2001 X_13[15]
*2002 X_13[14]
*2003 X_13[13]
*2004 X_13[12]
*2005 X_13[11]
*2006 X_13[10]
*2007 X_13[9]
*2008 X_13[8]
*2009 X_13[7]
*2010 X_13[6]
*2011 X_13[5]
*2012 X_13[4]
*2013 X_13[3]
*2014 X_13[2]
*2015 X_13[1]
*2016 X_13[0]
*2017 X_14[31]
*2018 X_14[30]
*2019 X_14[29]
*2020 X_14[28]
*2021 X_14[27]
*2022 X_14[26]
*2023 X_14[25]
*2024 X_14[24]
*2025 X_14[23]
*2026 X_14[22]
*2027 X_14[21]
*2028 X_14[20]
*2029 X_14[19]
*2030 X_14[18]
*2031 X_14[17]
*2032 X_14[16]
*2033 X_14[15]
*2034 X_14[14]
*2035 X_14[13]
*2036 X_14[12]
*2037 X_14[11]
*2038 X_14[10]
*2039 X_14[9]
*2040 X_14[8]
*2041 X_14[7]
*2042 X_14[6]
*2043 X_14[5]
*2044 X_14[4]
*2045 X_14[3]
*2046 X_14[2]
*2047 X_14[1]
*2048 X_14[0]
*2049 X_15[31]
*2050 X_15[30]
*2051 X_15[29]
*2052 X_15[28]
*2053 X_15[27]
*2054 X_15[26]
*2055 X_15[25]
*2056 X_15[24]
*2057 X_15[23]
*2058 X_15[22]
*2059 X_15[21]
*2060 X_15[20]
*2061 X_15[19]
*2062 X_15[18]
*2063 X_15[17]
*2064 X_15[16]
*2065 X_15[15]
*2066 X_15[14]
*2067 X_15[13]
*2068 X_15[12]
*2069 X_15[11]
*2070 X_15[10]
*2071 X_15[9]
*2072 X_15[8]
*2073 X_15[7]
*2074 X_15[6]
*2075 X_15[5]
*2076 X_15[4]
*2077 X_15[3]
*2078 X_15[2]
*2079 X_15[1]
*2080 X_15[0]
*2081 X_16[0]
*2082 X_16[10]
*2083 X_16[11]
*2084 X_16[12]
*2085 X_16[13]
*2086 X_16[14]
*2087 X_16[15]
*2088 X_16[16]
*2089 X_16[17]
*2090 X_16[18]
*2091 X_16[19]
*2092 X_16[1]
*2093 X_16[20]
*2094 X_16[21]
*2095 X_16[22]
*2096 X_16[23]
*2097 X_16[24]
*2098 X_16[25]
*2099 X_16[26]
*2100 X_16[27]
*2101 X_16[28]
*2102 X_16[29]
*2103 X_16[2]
*2104 X_16[30]
*2105 X_16[31]
*2106 X_16[3]
*2107 X_16[4]
*2108 X_16[5]
*2109 X_16[6]
*2110 X_16[7]
*2111 X_16[8]
*2112 X_16[9]
*2113 X_17[0]
*2114 X_17[10]
*2115 X_17[11]
*2116 X_17[12]
*2117 X_17[13]
*2118 X_17[14]
*2119 X_17[15]
*2120 X_17[16]
*2121 X_17[17]
*2122 X_17[18]
*2123 X_17[19]
*2124 X_17[1]
*2125 X_17[20]
*2126 X_17[21]
*2127 X_17[22]
*2128 X_17[23]
*2129 X_17[24]
*2130 X_17[25]
*2131 X_17[26]
*2132 X_17[27]
*2133 X_17[28]
*2134 X_17[29]
*2135 X_17[2]
*2136 X_17[30]
*2137 X_17[31]
*2138 X_17[3]
*2139 X_17[4]
*2140 X_17[5]
*2141 X_17[6]
*2142 X_17[7]
*2143 X_17[8]
*2144 X_17[9]
*2145 X_18[0]
*2146 X_18[10]
*2147 X_18[11]
*2148 X_18[12]
*2149 X_18[13]
*2150 X_18[14]
*2151 X_18[15]
*2152 X_18[16]
*2153 X_18[17]
*2154 X_18[18]
*2155 X_18[19]
*2156 X_18[1]
*2157 X_18[20]
*2158 X_18[21]